Version 4
SHEET 1 880 680
WIRE 352 -144 224 -144
WIRE 224 -96 224 -144
WIRE 224 -96 16 -96
WIRE 16 -48 16 -96
WIRE 352 -32 352 -64
WIRE 256 96 112 96
WIRE 352 96 336 96
WIRE 224 144 224 -96
WIRE 16 160 16 32
WIRE 112 160 112 96
WIRE 112 160 16 160
WIRE 192 160 112 160
WIRE 352 176 352 96
WIRE 352 176 256 176
WIRE 448 176 352 176
WIRE 192 192 -288 192
WIRE -288 208 -288 192
WIRE 16 208 16 160
WIRE 16 288 -288 288
WIRE 224 288 224 208
WIRE 224 288 16 288
WIRE 224 320 224 288
FLAG 224 320 0
FLAG 352 -32 0
SYMBOL Opamps\\AD822 224 112 R0
SYMATTR InstName U1
SYMBOL res 0 -64 R0
SYMATTR InstName R1
SYMATTR Value 200k
SYMBOL res 0 192 R0
SYMATTR InstName R2
SYMATTR Value 660k
SYMBOL res 352 80 R90
WINDOW 0 0 56 VBottom 2
WINDOW 3 32 56 VTop 2
SYMATTR InstName R3
SYMATTR Value 100k
SYMBOL voltage 352 -160 R0
WINDOW 123 0 0 Left 0
WINDOW 39 0 0 Left 0
SYMATTR InstName V1
SYMATTR Value 5v
SYMBOL voltage -288 192 R0
WINDOW 123 0 0 Left 0
WINDOW 39 0 0 Left 0
SYMATTR InstName V2
SYMATTR Value SINE(2.5 1 100 0 0 00 0)
TEXT -194 344 Left 2 !.tran 0.2s
